Version 4
SHEET 1 880 680
WIRE 672 -192 432 -192
WIRE 240 -144 176 -144
WIRE 432 -144 432 -192
WIRE 432 -144 320 -144
WIRE 432 -128 432 -144
WIRE 176 -112 176 -144
WIRE 672 -80 672 -112
WIRE 432 -32 432 -48
WIRE 496 -32 432 -32
WIRE 608 -32 576 -32
WIRE 432 -16 432 -32
WIRE 240 32 144 32
WIRE 368 32 320 32
WIRE 144 128 144 32
WIRE 144 240 144 208
WIRE 432 240 432 80
WIRE 432 240 144 240
WIRE 672 240 672 16
WIRE 672 240 432 240
WIRE 144 272 144 240
FLAG 144 272 0
FLAG 176 -112 0
SYMBOL voltage 144 112 R0
WINDOW 123 0 0 Left 2
WINDOW 39 0 0 Left 2
SYMATTR InstName V1
SYMATTR Value SINE(2.5 2.5 50)
SYMBOL npn 368 -16 R0
SYMATTR InstName Q1
SYMATTR Value 2N3904
SYMBOL res 336 16 R90
WINDOW 0 0 56 VBottom 2
WINDOW 3 32 56 VTop 2
SYMATTR InstName R1
SYMATTR Value 1k
SYMBOL res 416 -144 R0
SYMATTR InstName R2
SYMATTR Value 1k
SYMBOL voltage 336 -144 R90
WINDOW 0 -32 56 VBottom 2
WINDOW 3 32 56 VTop 2
WINDOW 123 0 0 Left 2
WINDOW 39 -4 56 VBottom 2
SYMATTR InstName V2
SYMATTR Value 5
SYMATTR SpiceLine Rser=0
SYMBOL res 592 -48 R90
WINDOW 0 0 56 VBottom 2
WINDOW 3 32 56 VTop 2
SYMATTR InstName R3
SYMATTR Value 1k
SYMBOL npn 608 -80 R0
SYMATTR InstName Q2
SYMATTR Value 2N3904
SYMBOL res 656 -208 R0
SYMATTR InstName R4
SYMATTR Value 100R
TEXT 112 296 Left 2 !.tran 10s
TEXT -392 104 Left 2 ;Uwaga, wyjscie opto 6N137 podciagnac 1k UP
